%description:

TODO

%file: test.ned

import inet.common.newqueue.PriorityBuffer;
import inet.common.newqueue.PacketClassifier;
import inet.common.newqueue.PacketQueue;
import inet.common.newqueue.PacketCollector;
import inet.common.newqueue.PacketProducer;
import inet.common.newqueue.PriorityScheduler;
import inet.common.newqueue.ThresholdDropper;

network TestThresholdDropper
{
    submodules:
        producer: PacketProducer {
            @display("p=100,100");
        }
        classifier: PacketClassifier {
            @display("p=200,100");
        }
        dropper: ThresholdDropper {
            @display("p=300,100");
        }
        queue1: PacketQueue {
            @display("p=400,100");
        }
        queue2: PacketQueue {
            @display("p=400,200");
        }
        scheduler: PriorityScheduler {
            @display("p=500,100");
        }
        collector: PacketCollector {
            @display("p=600,100");
        }
    connections:
        producer.out --> classifier.in;
    	classifier.out++ --> dropper.in++;
    	classifier.out++ --> dropper.in++;
    	dropper.out++ --> queue1.in;
    	dropper.out++ --> queue2.in;
    	queue1.out --> scheduler.in++;
    	queue2.out --> scheduler.in++;
    	scheduler.out --> collector.in;
}

%file: Test.cc
#include <vector>
#include "inet/common/newqueue/PacketClassifierFunction.h"
#include "inet/common/packet/Packet.h"

using namespace inet; 

static int testClassify(Packet *packet)
{
    return packet->getId() % 2;
}

Register_Packet_Classifier_Function(TestClassifier, testClassify);

%inifile: omnetpp.ini

[General]
network = TestThresholdDropper
sim-time-limit = 10s
cmdenv-event-banners = false
*.producer.packetLength = 1B
*.producer.productionInterval = uniform(0s, 1s)
*.dropper.frameCapacity = 2
*.collector.collectionInterval = uniform(0s, 2s)
*.classifier.classifierClass = "TestClassifier"

%contains: stdout
Producing packet producer-0.
Classifying packet producer-0.
Passing through packet producer-0.
Pushing packet producer-0 into the queue.
Popping packet producer-0 from the queue.
Scheduling packet producer-0.
Collecting packet producer-0.
Producing packet producer-1.
Classifying packet producer-1.
Passing through packet producer-1.
Pushing packet producer-1 into the queue.
Popping packet producer-1 from the queue.
Scheduling packet producer-1.
Collecting packet producer-1.
Producing packet producer-2.
Classifying packet producer-2.
Passing through packet producer-2.
Pushing packet producer-2 into the queue.
Producing packet producer-3.
Classifying packet producer-3.
Passing through packet producer-3.
Pushing packet producer-3 into the queue.
Producing packet producer-4.
Classifying packet producer-4.
Filtering packet producer-4.
Popping packet producer-2 from the queue.
Scheduling packet producer-2.
Collecting packet producer-2.
Producing packet producer-5.
Classifying packet producer-5.
Passing through packet producer-5.
Pushing packet producer-5 into the queue.
Producing packet producer-6.
Classifying packet producer-6.
Filtering packet producer-6.
Producing packet producer-7.
Classifying packet producer-7.
Filtering packet producer-7.
Popping packet producer-3 from the queue.
Scheduling packet producer-3.
Collecting packet producer-3.
Producing packet producer-8.
Classifying packet producer-8.
Passing through packet producer-8.
Pushing packet producer-8 into the queue.
Popping packet producer-8 from the queue.
Scheduling packet producer-8.
Collecting packet producer-8.
Producing packet producer-9.
Classifying packet producer-9.
Passing through packet producer-9.
Pushing packet producer-9 into the queue.
Popping packet producer-5 from the queue.
Scheduling packet producer-5.
Collecting packet producer-5.
Popping packet producer-9 from the queue.
Scheduling packet producer-9.
Collecting packet producer-9.
Producing packet producer-10.
Classifying packet producer-10.
Passing through packet producer-10.
Pushing packet producer-10 into the queue.
Producing packet producer-11.
Classifying packet producer-11.
Passing through packet producer-11.
Pushing packet producer-11 into the queue.
Producing packet producer-12.
Classifying packet producer-12.
Filtering packet producer-12.
Producing packet producer-13.
Classifying packet producer-13.
Filtering packet producer-13.
Popping packet producer-10 from the queue.
Scheduling packet producer-10.
Collecting packet producer-10.
Producing packet producer-14.
Classifying packet producer-14.
Passing through packet producer-14.
Pushing packet producer-14 into the queue.
Producing packet producer-15.
Classifying packet producer-15.
Filtering packet producer-15.
Producing packet producer-16.
Classifying packet producer-16.
Filtering packet producer-16.
Popping packet producer-14 from the queue.
Scheduling packet producer-14.
Collecting packet producer-14.
Producing packet producer-17.
Classifying packet producer-17.
Passing through packet producer-17.
Pushing packet producer-17 into the queue.
