%description:

TODO

%file: test.ned

import inet.common.newqueue.TokenBucket;
import inet.common.newqueue.PacketConsumer;
import inet.common.newqueue.PacketProducer;

network TestTokenBucket
{
    submodules:
        producer: PacketProducer {
            @display("p=100,100");
        }
        bucket: TokenBucket {
            @display("p=200,100");
        }
        consumer: PacketConsumer {
            @display("p=300,100");
        }
    connections allowunconnected:
        producer.out --> bucket.in;
        bucket.out --> consumer.in;
}

%inifile: omnetpp.ini

[General]
network = TestTokenBucket
sim-time-limit = 10s
cmdenv-event-banners = false
*.producer.packetLength = 1B
*.producer.productionInterval = uniform(0s, 2s)
*.bucket.server.maxNumTokens = 10
*.bucket.server.tokenProductionInterval = uniform(0s, 2s)

%contains: stdout
Producing packet producer-0.
Pushing packet producer-0 into the queue.
Popping packet producer-0 from the queue.
Processing packet producer-0.
Consuming packet producer-0.
Producing packet producer-1.
Pushing packet producer-1 into the queue.
Popping packet producer-1 from the queue.
Processing packet producer-1.
Consuming packet producer-1.
Producing packet producer-2.
Pushing packet producer-2 into the queue.
Popping packet producer-2 from the queue.
Processing packet producer-2.
Consuming packet producer-2.
Producing packet producer-3.
Pushing packet producer-3 into the queue.
Popping packet producer-3 from the queue.
Processing packet producer-3.
Consuming packet producer-3.
Producing packet producer-4.
Pushing packet producer-4 into the queue.
Popping packet producer-4 from the queue.
Processing packet producer-4.
Consuming packet producer-4.
Producing packet producer-5.
Pushing packet producer-5 into the queue.
Popping packet producer-5 from the queue.
Processing packet producer-5.
Consuming packet producer-5.
Producing packet producer-6.
Pushing packet producer-6 into the queue.
Popping packet producer-6 from the queue.
Processing packet producer-6.
Consuming packet producer-6.
Producing packet producer-7.
Pushing packet producer-7 into the queue.
Popping packet producer-7 from the queue.
Processing packet producer-7.
Consuming packet producer-7.
